# Packages (lines beginning "#" are comments)
 &PACKAGES
 useGMRedi=.TRUE.,
 useCal=.FALSE.,
 usediagnostics=.TRUE.,
 useLayers=.TRUE.,
 useRBCS=.TRUE. 
 usePTRACERS=.TRUE.,
#useMNC=.TRUE.,
 &
